data_DMOF
_cell_length_a   15.65778
_cell_length_b   19.35436
_cell_length_c   15.65777
_cell_angle_alpha   90
_cell_angle_beta    90.00820
_cell_angle_gamma   90
_symmetry_Int_Tables_number   1
_chemical_formula_structural   ZnH10C14NO4
_chemical_formula_sum   'Zn4 H40 C56 N4 O16'
_cell_volume   1612.65625637
_cell_formula_units_Z   4
loop_
 _symmetry_equiv_pos_site_id
 _symmetry_equiv_pos_as_xyz
  1  'x, y, z'

loop_
_atom_site_label
_atom_site_fract_x
_atom_site_fract_y
_atom_site_fract_z
_atom_site_type_symbol
_atom_site_charge
 H1  0.555965 0.129081 0.058173 H  0.101338
 H2  0.555733 0.350714 0.058355 H  0.102175
 H3  0.555965 0.855024 0.058173 H  0.100811
 H4  0.555733 0.633391 0.058355 H  0.102167
 H5  0.372617 0.053446 0.802501 H  0.101700
 H6  0.884610 0.053334 0.266179 H  0.103543
 H7  0.369606 0.053442 0.689508 H  0.101065
 H8  0.825583 0.053237 0.362473 H  0.101556
 H9  0.442559 0.129081 0.944767 H  0.101140
 H10 0.442376 0.350714 0.944999 H  0.102275
 H11 0.142342 0.053234 0.829006 H  0.100163
 H12 0.241612 0.053349 0.882902 H  0.104128
 H13 0.058896 0.852464 0.944210 H  0.101985
 H14 0.057750 0.630834 0.945478 H  0.101183
 H15 0.128245 0.553446 0.698100 H  0.101906
 H16 0.362604 0.430868 0.825453 H  0.100675
 H17 0.829137 0.553235 0.142212 H  0.100632
 H18 0.131256 0.553442 0.811093 H  0.101306
 H19 0.266309 0.430772 0.884479 H  0.103412
 H20 0.883032 0.553349 0.241481 H  0.104387
 H21 0.058303 0.629081 0.555834 H  0.101145
 H22 0.058486 0.850714 0.555602 H  0.102023
 H23 0.131256 0.430664 0.811093 H  0.101788
 H24 0.358519 0.553235 0.671595 H  0.100470
 H25 0.689639 0.430664 0.369476 H  0.101069
 H26 0.128245 0.430659 0.698100 H  0.102195
 H27 0.259250 0.553349 0.617699 H  0.103548
 H28 0.802632 0.430659 0.372487 H  0.101625
 H29 0.441966 0.352464 0.556391 H  0.102317
 H30 0.555254 0.353271 0.442981 H  0.100568
 H31 0.443112 0.130834 0.555123 H  0.100982
 H32 0.556522 0.131642 0.441836 H  0.102532
 H33 0.671725 0.053234 0.358389 H  0.100779
 H34 0.617830 0.053349 0.259120 H  0.103640
 H35 0.442559 0.855024 0.944767 H  0.101081
 H36 0.442376 0.633391 0.944999 H  0.101992
 H37 0.698230 0.053446 0.128114 H  0.102187
 H38 0.234553 0.053334 0.616122 H  0.103133
 H39 0.811223 0.053442 0.131125 H  0.101378
 H40 0.138258 0.053237 0.675148 H  0.101102
 H41 0.058896 0.131642 0.944210 H  0.101997
 H42 0.057750 0.353271 0.945478 H  0.101222
 H43 0.675279 0.430868 0.138128 H  0.101272
 H44 0.802632 0.553446 0.372487 H  0.101557
 H45 0.259250 0.430756 0.617699 H  0.103434
 H46 0.616252 0.430772 0.234423 H  0.103325
 H47 0.689639 0.553442 0.369476 H  0.101340
 H48 0.358519 0.430871 0.671595 H  0.100503
 H49 0.058303 0.355024 0.555834 H  0.100840
 H50 0.058486 0.133391 0.555602 H  0.102091
 H51 0.616252 0.553334 0.234423 H  0.103067
 H52 0.883032 0.430756 0.241481 H  0.104311
 H53 0.266309 0.553334 0.884479 H  0.103225
 H54 0.675279 0.553237 0.138128 H  0.101307
 H55 0.829137 0.430871 0.142212 H  0.101003
 H56 0.362604 0.553237 0.825453 H  0.101169
 H57 0.555254 0.630834 0.442981 H  0.101001
 H58 0.441966 0.631642 0.556391 H  0.102461
 H59 0.556522 0.852464 0.441836 H  0.102505
 H60 0.443112 0.853271 0.555124 H  0.100988
 H61 0.138258 0.930868 0.675148 H  0.101493
 H62 0.234553 0.930772 0.616122 H  0.103333
 H63 0.369606 0.930664 0.689508 H  0.100901
 H64 0.617830 0.930756 0.259120 H  0.103557
 H65 0.372617 0.930659 0.802501 H  0.101436
 H66 0.671725 0.930871 0.358389 H  0.100564
 H67 0.811223 0.930664 0.131125 H  0.101349
 H68 0.241612 0.930756 0.882902 H  0.104346
 H69 0.698230 0.930659 0.128114 H  0.101995
 H70 0.142342 0.930871 0.829006 H  0.100930
 H71 0.825583 0.930868 0.362473 H  0.100932
 H72 0.884610 0.930772 0.266179 H  0.103775
 H73 0.945608 0.853271 0.057620 H  0.101074
 H74 0.944340 0.631642 0.058765 H  0.102214
 H75 0.945608 0.130834 0.057620 H  0.101232
 H76 0.944340 0.352464 0.058765 H  0.101956
 H77 0.944897 0.629081 0.442428 H  0.101362
 H78 0.945129 0.850714 0.442246 H  0.102337
 H79 0.944897 0.355024 0.442428 H  0.101249
 H80 0.945129 0.133391 0.442246 H  0.102112
 O1  0.657808 0.298462 0.157698 O  -0.555866
 O2  0.657525 0.802915 0.158409 O  -0.555330
 O3  0.657808 0.685644 0.157698 O  -0.556216
 O4  0.657525 0.181190 0.158408 O  -0.555034
 O5  0.658603 0.799428 0.343004 O  -0.556051
 O6  0.158539 0.302915 0.657394 O  -0.555533
 O7  0.343134 0.684678 0.658473 O  -0.555362
 O8  0.656811 0.682174 0.342242 O  -0.555643
 O9  0.342323 0.802915 0.843207 O  -0.555471
 O10 0.157728 0.184678 0.842128 O  -0.555392
 O11 0.658603 0.184678 0.343004 O  -0.555550
 O12 0.342372 0.182174 0.656681 O  -0.555891
 O13 0.157728 0.799428 0.842128 O  -0.555781
 O14 0.343034 0.685644 0.842923 O  -0.554894
 O15 0.157828 0.798462 0.657678 O  -0.555488
 O16 0.342323 0.181190 0.843207 O  -0.555430
 O17 0.656811 0.301931 0.342242 O  -0.555628
 O18 0.158490 0.301931 0.843921 O  -0.555031
 O19 0.158490 0.682174 0.843920 O  -0.555094
 O20 0.343134 0.299428 0.658473 O  -0.555757
 O21 0.157828 0.185644 0.657678 O  -0.556438
 O22 0.343034 0.298462 0.842923 O  -0.554446
 O23 0.158539 0.681190 0.657394 O  -0.555030
 O24 0.342372 0.801931 0.656681 O  -0.554970
 O25 0.844051 0.182174 0.158359 O  -0.555272
 O26 0.843054 0.185644 0.342903 O  -0.554944
 O27 0.842259 0.684678 0.157597 O  -0.556056
 O28 0.842259 0.299428 0.157597 O  -0.555451
 O29 0.843054 0.798462 0.342903 O  -0.554149
 O30 0.843337 0.302915 0.342193 O  -0.555450
 O31 0.843337 0.681190 0.342193 O  -0.554939
 O32 0.844051 0.801931 0.158359 O  -0.555580
 C1  0.530583 0.681705 0.032975 C  -0.097190
 C2  0.631209 0.744301 0.132088 C  0.594046
 C3  0.562845 0.744249 0.064788 C  -0.024083
 C4  0.530688 0.806749 0.032860 C  -0.096531
 C5  0.631209 0.239804 0.132087 C  0.593351
 C6  0.562845 0.239856 0.064788 C  -0.023729
 C7  0.530583 0.302401 0.032975 C  -0.096383
 C8  0.530688 0.177356 0.032860 C  -0.097790
 C9  0.132145 0.243117 0.869479 C  0.593493
 C10 0.631253 0.740989 0.368587 C  0.594622
 C11 0.064854 0.242548 0.937833 C  -0.024429
 C12 0.562898 0.741558 0.435878 C  -0.023731
 C13 0.032636 0.304805 0.970423 C  -0.097926
 C14 0.467528 0.679771 0.530937 C  -0.096868
 C15 0.530309 0.679301 0.468096 C  -0.097610
 C16 0.339209 0.032075 0.746849 C  -0.089788
 C17 0.827694 0.032054 0.297530 C  -0.090686
 C18 0.368644 0.744301 0.869523 C  0.593376
 C19 0.435943 0.744249 0.937887 C  -0.023862
 C20 0.467756 0.681705 0.970148 C  -0.096911
 C21 0.032990 0.306749 0.530558 C  -0.097035
 C22 0.207291 0.032038 0.827736 C  -0.089691
 C23 0.368717 0.743116 0.631122 C  0.593390
 C24 0.436008 0.742548 0.562768 C  -0.024027
 C25 0.468226 0.804805 0.530178 C  -0.097658
 C26 0.033334 0.179771 0.969664 C  -0.096431
 C27 0.531068 0.804334 0.467397 C  -0.097152
 C28 0.161653 0.532075 0.753753 C  -0.091005
 C29 0.297661 0.452051 0.827563 C  -0.090224
 C30 0.827866 0.532038 0.207161 C  -0.091007
 C31 0.132218 0.244301 0.631078 C  0.594264
 C32 0.064919 0.244249 0.562715 C  -0.023498
 C33 0.033106 0.181705 0.530453 C  -0.097106
 C34 0.467872 0.806749 0.970043 C  -0.097737
 C35 0.161653 0.452030 0.753753 C  -0.092314
 C36 0.293571 0.532038 0.672865 C  -0.088955
 C37 0.746979 0.452030 0.339078 C  -0.089815
 C38 0.368717 0.240989 0.631122 C  0.594805
 C39 0.436008 0.241558 0.562768 C  -0.024415
 C40 0.530308 0.304805 0.468096 C  -0.096394
 C41 0.467528 0.304334 0.530937 C  -0.097165
 C42 0.032636 0.679301 0.970423 C  -0.097339
 C43 0.672996 0.032038 0.293440 C  -0.090001
 C44 0.132218 0.739804 0.631078 C  0.593194
 C45 0.064919 0.739856 0.562715 C  -0.024465
 C46 0.032990 0.677356 0.530558 C  -0.097116
 C47 0.467756 0.302401 0.970148 C  -0.098002
 C48 0.753883 0.032075 0.161523 C  -0.091767
 C49 0.203201 0.032054 0.673038 C  -0.089405
 C50 0.631253 0.243117 0.368587 C  0.594355
 C51 0.132145 0.740989 0.869479 C  0.593636
 C52 0.562898 0.242548 0.435878 C  -0.024966
 C53 0.064854 0.741558 0.937833 C  -0.024102
 C54 0.531068 0.179771 0.467397 C  -0.096606
 C55 0.033334 0.804334 0.969664 C  -0.096434
 C56 0.468226 0.179301 0.530178 C  -0.097543
 C57 0.673168 0.452051 0.203071 C  -0.090735
 C58 0.746979 0.532075 0.339078 C  -0.090127
 C59 0.293571 0.452068 0.672865 C  -0.089941
 C60 0.368644 0.239804 0.869523 C  0.592520
 C61 0.435943 0.239856 0.937887 C  -0.023747
 C62 0.467872 0.177356 0.970043 C  -0.097099
 C63 0.033106 0.802401 0.530453 C  -0.095966
 C64 0.673168 0.532054 0.203071 C  -0.088992
 C65 0.827866 0.452068 0.207161 C  -0.092315
 C66 0.297661 0.532054 0.827563 C  -0.090255
 C67 0.203201 0.952051 0.673038 C  -0.090534
 C68 0.339209 0.952030 0.746849 C  -0.089232
 C69 0.672996 0.952068 0.293440 C  -0.089984
 C70 0.753883 0.952030 0.161523 C  -0.091527
 C71 0.207291 0.952068 0.827736 C  -0.092305
 C72 0.827694 0.952051 0.297530 C  -0.090821
 C73 0.969794 0.304334 0.033204 C  -0.096001
 C74 0.869609 0.240989 0.132014 C  0.593651
 C75 0.937964 0.241558 0.064724 C  -0.024099
 C76 0.970553 0.179301 0.032505 C  -0.097843
 C77 0.869609 0.743116 0.132014 C  0.594599
 C78 0.937964 0.742548 0.064723 C  -0.024325
 C79 0.969794 0.679771 0.033204 C  -0.097029
 C80 0.970553 0.804805 0.032505 C  -0.097545
 C81 0.869653 0.244301 0.368514 C  0.593338
 C82 0.938017 0.244249 0.435813 C  -0.023914
 C83 0.970174 0.306749 0.467741 C  -0.097646
 C84 0.970279 0.181705 0.467626 C  -0.097195
 C85 0.970174 0.677356 0.467741 C  -0.097252
 C86 0.869653 0.739804 0.368514 C  0.591660
 C87 0.938017 0.739856 0.435813 C  -0.023541
 C88 0.970279 0.802401 0.467626 C  -0.098349
 Zn1 0.749896 0.668255 0.250027 Zn 0.828672
 Zn2 0.749896 0.315850 0.250027 Zn 0.828407
 Zn3 0.750965 0.168255 0.250574 Zn 0.827618
 Zn4 0.750965 0.815850 0.250574 Zn 0.827870
 Zn5 0.250704 0.315850 0.750835 Zn 0.827722
 Zn6 0.250704 0.668255 0.750835 Zn 0.827538
 Zn7 0.250158 0.815850 0.749766 Zn 0.828110
 Zn8 0.250158 0.168255 0.749766 Zn 0.828793
 N1  0.249823 0.058742 0.749213 N  -0.105417
 N2  0.251038 0.558742 0.751388 N  -0.104179
 N3  0.251038 0.425363 0.751388 N  -0.103850
 N4  0.751519 0.058742 0.250908 N  -0.103731
 N5  0.749343 0.425363 0.249693 N  -0.103709
 N6  0.749343 0.558742 0.249693 N  -0.105246
 N7  0.249823 0.925363 0.749213 N  -0.104630
 N8  0.751519 0.925363 0.250908 N  -0.103755
